%chk=3D2TA-QMMM-insidegauss-ligand.chk
%nproc=2
%mem=2GB
#p rb3lyp/6-31+g(d,p) opt freq polar

3D2T

-1 1
 F                 -0.46560000   42.06950000    5.41240000
 C                  0.86360000   42.63230000    5.39440000
 C                  1.42960000   42.75650000    4.17720000
 C                  2.67950000   43.37300000    3.98950000
 F                  3.23040000   43.50160000    2.75750000
 C                  3.36930000   43.86850000    5.04630000
 C                  2.85050000   43.73870000    6.25050000
 C                  1.54370000   43.10990000    6.53950000
 C                  1.04720000   42.99080000    7.86940000
 C                  0.52270000   41.72160000    8.42020000
 C                 -0.01030000   41.57210000    9.60220000
 C                 -0.53890000   40.14060000   10.02020000
 O                 -0.10930000   38.99400000    9.27550000
 O                 -1.24010000   39.98160000   10.88020000
 C                  0.96110000   44.05430000    8.73340000
 C                  0.48780000   43.91180000    9.94770000
 C                  0.01150000   42.75120000   10.38850000
 O                 -0.49970000   42.71260000   11.72800000
 H                  0.90010000   42.36560000    3.30840000
 H                  4.33030000   44.36250000    4.90310000
 H                  3.42550000   44.12200000    7.09350000
 H                  0.58690000   40.83750000    7.78580000
 H                  1.29350000   45.03830000    8.40270000
 H                  0.48460000   44.77200000   10.61720000
 H                 -1.51140000   42.43190000   11.70910000

 1 2 1.0
 2        -1.227892    -1.618418    1.555557
 3        -1.942119    -0.738278    0.661647
 4        -3.264311    -0.972871    0.542769
 5
        -4.109145    -0.142934    -0.215527
 6        -5.439332    -0.384657    -0.315653
 7        -3.611369    0.937667    -0.865673
 8        -2.317997    1.176470    -0.786543
 9        -1.358598    0.361377    -0.010776
 10        0.031912    0.669242    0.021375
 11        -1.227892    -1.618418    1.555557
 12        -1.942119    -0.738278    0.661647
 13        -3.264311    -0.972871    0.542769
 14
        -4.109145    -0.142934    -0.215527
         -5.439332    -0.384657    -0.315653
 15        -3.611369    0.937667    -0.865673
 16        -2.317997    1.176470    -0.786543
 17        -1.358598    0.361377    -0.010776
 18        -1.227892    -1.618418    1.555557
 19
        -1.942119    -0.738278    0.661647
         -3.264311    -0.972871    0.542769
         -4.109145    -0.142934    -0.215527
 20
        -5.439332    -0.384657    -0.315653
         -3.611369    0.937667    -0.865673
         -1.227892    -1.618418    1.555557
 21
        -1.942119    -0.738278    0.661647
         -3.264311    -0.972871    0.542769
         -4.109145    -0.142934    -0.215527
         -5.439332    -0.384657    -0.315653
 22
        -1.227892    -1.618418    1.555557
         -1.942119    -0.738278    0.661647
         -3.264311    -0.972871    0.542769
         -4.109145    -0.142934    -0.215527
         -1.315242    -1.701467    1.222288
 23
        -2.044578    -0.786820    0.537766
         -3.414272    -1.020462    0.459115
         -4.186151    -0.080147    -0.207127
         -5.535834    -0.290456    -0.298687
         -3.635364    1.055559    -0.781368
         -2.252922    1.239465    -0.682569
 24
        -1.405982    0.332762    -0.019059
         0.054846    0.576834    0.084543
         0.998689    -0.430639    -0.171696
         2.370748    -0.185333    -0.129200
         3.373897    -1.305929    -0.413323
         2.942267    -2.437022    -0.691700
 25
        4.605685    -0.933818    -0.358015
         0.530614    1.865489    0.400446
         1.893845    2.134350    0.463946
         2.832958    1.116093    0.204258
         4.142986    1.381333    0.276947
         -3.854084    -1.900616    0.913102
 26
        -4.268302    1.764165    -1.304205
         -1.801204    2.108700    -1.149589
         0.690590    -1.437095    -0.437868
         -0.178696    2.659046    0.626054
         2.259335    3.122302    0.729256
         4.586571    0.459520    0.018587



