%chk=toluene.chk

%nproc=2

%mem=2GB

#p rb3lyp/6-31+g(d,p) opt freq polar
 


Title Card Required


0 1
 
 C             -1.2297    0.3172    -0.0133

 C             -1.2297    -1.1027    -0.0133

 C             0.0000    -1.8127    -0.0133

 C             1.2297    -1.1027    -0.0133

 C             1.2297    0.3172    -0.0133

 C             0.0000    1.0272    -0.0133

 C             0.0000    2.5242    -0.0003

 H             -2.1823    0.8672    -0.0038

 H             -2.1823    -1.6527    -0.0228

 H             0.0000    -2.9127    -0.0228

 H             2.1823    -1.6527    -0.0228

 H             2.1823    0.8672    -0.0228

 H             0.5275    2.8970    0.9061

 H             -1.0459    2.9048    0.0068

 H             0.5172    2.9127    -0.9061

